1
# Step: 0 Box:       inf    0.0000    0.0000 
H        -0.707292160     0.000000000     0.000000000    -0.543241014    -0.232997562    -0.010815397
1
# Step: 1 Box:       inf    0.0000    0.0000 
H        -0.721281938     0.000000000     0.000000000    -0.574066344    -0.232997562    -0.010815397
1
# Step: 2 Box:       inf    0.0000    0.0000 
H        -0.736021518     0.000000000     0.000000000    -0.628890252    -0.232997562    -0.010815397
1
# Step: 3 Box:       inf    0.0000    0.0000 
H        -0.751539883     0.000000000     0.000000000    -0.597429893    -0.232997562    -0.010815397
1
# Step: 4 Box:       inf    0.0000    0.0000 
H        -0.767042499     0.000000000     0.000000000    -0.606627548    -0.232997562    -0.010815397
1
# Step: 5 Box:       inf    0.0000    0.0000 
H        -0.782173493     0.000000000     0.000000000    -0.614307079    -0.232997562    -0.010815397
1
# Step: 6 Box:       inf    0.0000    0.0000 
H        -0.797876622     0.000000000     0.000000000    -0.655810121    -0.232997562    -0.010815397
1
# Step: 7 Box:       inf    0.0000    0.0000 
H        -0.813918357     0.000000000     0.000000000    -0.664590715    -0.232997562    -0.010815397
1
# Step: 8 Box:       inf    0.0000    0.0000 
H        -0.830843896     0.000000000     0.000000000    -0.712215047    -0.232997562    -0.010815397
1
# Step: 9 Box:       inf    0.0000    0.0000 
H        -0.849097035     0.000000000     0.000000000    -0.755762208    -0.232997562    -0.010815397
1
# Step: 10 Box:       inf    0.0000    0.0000 
H        -0.868393002     0.000000000     0.000000000    -0.787119752    -0.232997562    -0.010815397
1
# Step: 11 Box:       inf    0.0000    0.0000 
H        -0.888457562     0.000000000     0.000000000    -0.824958378    -0.232997562    -0.010815397
1
# Step: 12 Box:       inf    0.0000    0.0000 
H        -0.908524212     0.000000000     0.000000000    -0.795809154    -0.232997562    -0.010815397
1
# Step: 13 Box:       inf    0.0000    0.0000 
H        -0.928373787     0.000000000     0.000000000    -0.832251724    -0.232997562    -0.010815397
1
# Step: 14 Box:       inf    0.0000    0.0000 
H        -0.949354758     0.000000000     0.000000000    -0.840338362    -0.232997562    -0.010815397
1
# Step: 15 Box:       inf    0.0000    0.0000 
H        -0.970387342     0.000000000     0.000000000    -0.846587496    -0.232997562    -0.010815397
1
# Step: 16 Box:       inf    0.0000    0.0000 
H        -0.991215530     0.000000000     0.000000000    -0.823282796    -0.232997562    -0.010815397
