1
# Step: 0 Box:       inf    0.0000    0.0000 
H        -0.489784219     0.000000000     0.000000000    -0.045426165     0.043420507     0.417379005
1
# Step: 1 Box:       inf    0.0000    0.0000 
H        -0.491498601     0.000000000     0.000000000    -0.091707615     0.043420507     0.417379005
1
# Step: 2 Box:       inf    0.0000    0.0000 
H        -0.494430456     0.000000000     0.000000000    -0.162840750     0.043420507     0.417379005
1
# Step: 3 Box:       inf    0.0000    0.0000 
H        -0.499302571     0.000000000     0.000000000    -0.224238002     0.043420507     0.417379005
1
# Step: 4 Box:       inf    0.0000    0.0000 
H        -0.506098815     0.000000000     0.000000000    -0.277109101     0.043420507     0.417379005
