1
# Step: 0 Box:       inf    0.0000    0.0000 
H        -0.506098815     0.000000000     0.000000000    -0.277109101     0.043420507     0.417379005
1
# Step: 1 Box:       inf    0.0000    0.0000 
H        -0.513182202     0.000000000     0.000000000    -0.304464848     0.043420507     0.417379005
1
# Step: 2 Box:       inf    0.0000    0.0000 
H        -0.521453478     0.000000000     0.000000000    -0.349112947     0.043420507     0.417379005
1
# Step: 3 Box:       inf    0.0000    0.0000 
H        -0.530517143     0.000000000     0.000000000    -0.366520424     0.043420507     0.417379005
1
# Step: 4 Box:       inf    0.0000    0.0000 
H        -0.540150546     0.000000000     0.000000000    -0.425310988     0.043420507     0.417379005
1
# Step: 5 Box:       inf    0.0000    0.0000 
H        -0.551376321     0.000000000     0.000000000    -0.472778592     0.043420507     0.417379005
1
# Step: 6 Box:       inf    0.0000    0.0000 
H        -0.563375500     0.000000000     0.000000000    -0.470598028     0.043420507     0.417379005
1
# Step: 7 Box:       inf    0.0000    0.0000 
H        -0.575381551     0.000000000     0.000000000    -0.514656871     0.043420507     0.417379005
1
# Step: 8 Box:       inf    0.0000    0.0000 
H        -0.589279589     0.000000000     0.000000000    -0.589212053     0.043420507     0.417379005
1
# Step: 9 Box:       inf    0.0000    0.0000 
H        -0.604511517     0.000000000     0.000000000    -0.632231133     0.043420507     0.417379005
1
# Step: 10 Box:       inf    0.0000    0.0000 
H        -0.619989763     0.000000000     0.000000000    -0.627350866     0.043420507     0.417379005
1
# Step: 11 Box:       inf    0.0000    0.0000 
H        -0.635816636     0.000000000     0.000000000    -0.661495155     0.043420507     0.417379005
1
# Step: 12 Box:       inf    0.0000    0.0000 
H        -0.653213150     0.000000000     0.000000000    -0.739239057     0.043420507     0.417379005
1
# Step: 13 Box:       inf    0.0000    0.0000 
H        -0.671662196     0.000000000     0.000000000    -0.761063920     0.043420507     0.417379005
1
# Step: 14 Box:       inf    0.0000    0.0000 
H        -0.691233557     0.000000000     0.000000000    -0.820055809     0.043420507     0.417379005
1
# Step: 15 Box:       inf    0.0000    0.0000 
H        -0.712798715     0.000000000     0.000000000    -0.880531571     0.043420507     0.417379005
1
# Step: 16 Box:       inf    0.0000    0.0000 
H        -0.734478683     0.000000000     0.000000000    -0.855008723     0.043420507     0.417379005
1
# Step: 17 Box:       inf    0.0000    0.0000 
H        -0.756970591     0.000000000     0.000000000    -0.922811039     0.043420507     0.417379005
1
# Step: 18 Box:       inf    0.0000    0.0000 
H        -0.780443672     0.000000000     0.000000000    -0.953804512     0.043420507     0.417379005
1
# Step: 19 Box:       inf    0.0000    0.0000 
H        -0.804867932     0.000000000     0.000000000    -0.970240439     0.043420507     0.417379005
1
# Step: 20 Box:       inf    0.0000    0.0000 
H        -0.828367171     0.000000000     0.000000000    -0.948206717     0.043420507     0.417379005
1
# Step: 21 Box:       inf    0.0000    0.0000 
H        -0.853276810     0.000000000     0.000000000    -1.040639690     0.043420507     0.417379005
1
# Step: 22 Box:       inf    0.0000    0.0000 
H        -0.880413906     0.000000000     0.000000000    -1.094003566     0.043420507     0.417379005
1
# Step: 23 Box:       inf    0.0000    0.0000 
H        -0.906920064     0.000000000     0.000000000    -1.030752933     0.043420507     0.417379005
1
# Step: 24 Box:       inf    0.0000    0.0000 
H        -0.932993252     0.000000000     0.000000000    -1.032223709     0.043420507     0.417379005
1
# Step: 25 Box:       inf    0.0000    0.0000 
H        -0.958672774     0.000000000     0.000000000    -1.026624996     0.043420507     0.417379005
1
# Step: 26 Box:       inf    0.0000    0.0000 
H        -0.984387252     0.000000000     0.000000000    -1.006062172     0.043420507     0.417379005
1
# Step: 27 Box:       inf    0.0000    0.0000 
H        -1.009032206     0.000000000     0.000000000    -0.984537573     0.043420507     0.417379005
