1
# Step: 0 Box:       inf    0.0000    0.0000 
H        -0.489784219     0.000000000     0.000000000     0.045426165    -0.043420507    -0.417379005
1
# Step: 1 Box:       inf    0.0000    0.0000 
H        -0.489833436     0.000000000     0.000000000    -0.053457312    -0.043420507    -0.417379005
1
# Step: 2 Box:       inf    0.0000    0.0000 
H        -0.490775193     0.000000000     0.000000000    -0.044635094    -0.043420507    -0.417379005
1
# Step: 3 Box:       inf    0.0000    0.0000 
H        -0.491424382     0.000000000     0.000000000    -0.038431353    -0.043420507    -0.417379005
1
# Step: 4 Box:       inf    0.0000    0.0000 
H        -0.493066724     0.000000000     0.000000000    -0.078901055    -0.043420507    -0.417379005
1
# Step: 5 Box:       inf    0.0000    0.0000 
H        -0.495104472     0.000000000     0.000000000    -0.107223694    -0.043420507    -0.417379005
1
# Step: 6 Box:       inf    0.0000    0.0000 
H        -0.497819868     0.000000000     0.000000000    -0.122724655    -0.043420507    -0.417379005
1
# Step: 7 Box:       inf    0.0000    0.0000 
H        -0.501393613     0.000000000     0.000000000    -0.160105658    -0.043420507    -0.417379005
