1
# Step: 0 Box:       inf    0.0000    0.0000 
H        -1.116118101     0.000000000     0.000000000     0.362127875     0.492103747    -0.291591274
1
# Step: 1 Box:       inf    0.0000    0.0000 
H        -1.106596345     0.000000000     0.000000000     0.374958775     0.492103747    -0.291591274
1
# Step: 2 Box:       inf    0.0000    0.0000 
H        -1.096691774     0.000000000     0.000000000     0.422660772     0.492103747    -0.291591274
1
# Step: 3 Box:       inf    0.0000    0.0000 
H        -1.085824622     0.000000000     0.000000000     0.451761184     0.492103747    -0.291591274
1
# Step: 4 Box:       inf    0.0000    0.0000 
H        -1.075122744     0.000000000     0.000000000     0.408506352     0.492103747    -0.291591274
1
# Step: 5 Box:       inf    0.0000    0.0000 
H        -1.064600392     0.000000000     0.000000000     0.453381489     0.492103747    -0.291591274
1
# Step: 6 Box:       inf    0.0000    0.0000 
H        -1.052337563     0.000000000     0.000000000     0.514407999     0.492103747    -0.291591274
1
# Step: 7 Box:       inf    0.0000    0.0000 
H        -1.039314830     0.000000000     0.000000000     0.506181827     0.492103747    -0.291591274
1
# Step: 8 Box:       inf    0.0000    0.0000 
H        -1.026294109     0.000000000     0.000000000     0.536085187     0.492103747    -0.291591274
1
# Step: 9 Box:       inf    0.0000    0.0000 
H        -1.011534182     0.000000000     0.000000000     0.623587869     0.492103747    -0.291591274
1
# Step: 10 Box:       inf    0.0000    0.0000 
H        -0.995465902     0.000000000     0.000000000     0.663295655     0.492103747    -0.291591274
1
# Step: 11 Box:       inf    0.0000    0.0000 
H        -0.979575744     0.000000000     0.000000000     0.628678889     0.492103747    -0.291591274
