1
# Step: 0 Box:       inf    0.0000    0.0000 
H        -0.689176329     0.000000000     0.000000000     0.178020564     0.032252197     0.422600331
1
# Step: 1 Box:       inf    0.0000    0.0000 
H        -0.684981457     0.000000000     0.000000000     0.140258935     0.032252197     0.422600331
1
# Step: 2 Box:       inf    0.0000    0.0000 
H        -0.682450661     0.000000000     0.000000000     0.093480778     0.032252197     0.422600331
1
# Step: 3 Box:       inf    0.0000    0.0000 
H        -0.680605239     0.000000000     0.000000000     0.059139733     0.032252197     0.422600331
1
# Step: 4 Box:       inf    0.0000    0.0000 
H        -0.678455042     0.000000000     0.000000000     0.084813844     0.032252197     0.422600331
1
# Step: 5 Box:       inf    0.0000    0.0000 
H        -0.677115509     0.000000000     0.000000000     0.006563702     0.032252197     0.422600331
1
# Step: 6 Box:       inf    0.0000    0.0000 
H        -0.677450837     0.000000000     0.000000000    -0.035018723     0.032252197     0.422600331
1
# Step: 7 Box:       inf    0.0000    0.0000 
H        -0.678598859     0.000000000     0.000000000    -0.061454211     0.032252197     0.422600331
1
# Step: 8 Box:       inf    0.0000    0.0000 
H        -0.680664424     0.000000000     0.000000000    -0.096757725     0.032252197     0.422600331
1
# Step: 9 Box:       inf    0.0000    0.0000 
H        -0.683435067     0.000000000     0.000000000    -0.110720337     0.032252197     0.422600331
1
# Step: 10 Box:       inf    0.0000    0.0000 
H        -0.687114382     0.000000000     0.000000000    -0.188310830     0.032252197     0.422600331
1
# Step: 11 Box:       inf    0.0000    0.0000 
H        -0.692316667     0.000000000     0.000000000    -0.216973781     0.032252197     0.422600331
1
# Step: 12 Box:       inf    0.0000    0.0000 
H        -0.698957407     0.000000000     0.000000000    -0.300895939     0.032252197     0.422600331
1
# Step: 13 Box:       inf    0.0000    0.0000 
H        -0.707418095     0.000000000     0.000000000    -0.355734179     0.032252197     0.422600331
