1
# Step: 0 Box:       inf    0.0000    0.0000 
H        -0.691463580     0.000000000     0.000000000    -0.051780979    -0.286512192    -0.027557173
1
# Step: 1 Box:       inf    0.0000    0.0000 
H        -0.693560775     0.000000000     0.000000000    -0.103888869    -0.286512192    -0.027557173
1
# Step: 2 Box:       inf    0.0000    0.0000 
H        -0.696772151     0.000000000     0.000000000    -0.169065940    -0.286512192    -0.027557173
1
# Step: 3 Box:       inf    0.0000    0.0000 
H        -0.701429113     0.000000000     0.000000000    -0.207382691    -0.286512192    -0.027557173
