1
# Step: 0 Box:       inf    0.0000    0.0000 
H        -0.691463580     0.000000000     0.000000000     0.051780979     0.286512192     0.027557173
1
# Step: 1 Box:       inf    0.0000    0.0000 
H        -0.690002919     0.000000000     0.000000000     0.051790042     0.286512192     0.027557173
1
# Step: 2 Box:       inf    0.0000    0.0000 
H        -0.688615782     0.000000000     0.000000000     0.035952134     0.286512192     0.027557173
1
# Step: 3 Box:       inf    0.0000    0.0000 
H        -0.688091346     0.000000000     0.000000000    -0.015505327     0.286512192     0.027557173
1
# Step: 4 Box:       inf    0.0000    0.0000 
H        -0.689179317     0.000000000     0.000000000    -0.050873196     0.286512192     0.027557173
1
# Step: 5 Box:       inf    0.0000    0.0000 
H        -0.690760435     0.000000000     0.000000000    -0.082726603     0.286512192     0.027557173
1
# Step: 6 Box:       inf    0.0000    0.0000 
H        -0.693053332     0.000000000     0.000000000    -0.086288212     0.286512192     0.027557173
1
# Step: 7 Box:       inf    0.0000    0.0000 
H        -0.696197016     0.000000000     0.000000000    -0.163667274     0.286512192     0.027557173
1
# Step: 8 Box:       inf    0.0000    0.0000 
H        -0.701189817     0.000000000     0.000000000    -0.221008178     0.286512192     0.027557173
