1
# Step: 0 Box:       inf    0.0000    0.0000 
H        -0.701429113     0.000000000     0.000000000    -0.207382691    -0.286512192    -0.027557173
1
# Step: 1 Box:       inf    0.0000    0.0000 
H        -0.707101370     0.000000000     0.000000000    -0.233720656    -0.286512192    -0.027557173
1
# Step: 2 Box:       inf    0.0000    0.0000 
H        -0.712774152     0.000000000     0.000000000    -0.229798027    -0.286512192    -0.027557173
1
# Step: 3 Box:       inf    0.0000    0.0000 
H        -0.718858501     0.000000000     0.000000000    -0.273247986    -0.286512192    -0.027557173
1
# Step: 4 Box:       inf    0.0000    0.0000 
H        -0.725276281     0.000000000     0.000000000    -0.249563319    -0.286512192    -0.027557173
1
# Step: 5 Box:       inf    0.0000    0.0000 
H        -0.731259774     0.000000000     0.000000000    -0.233478325    -0.286512192    -0.027557173
1
# Step: 6 Box:       inf    0.0000    0.0000 
H        -0.736771591     0.000000000     0.000000000    -0.204122317    -0.286512192    -0.027557173
1
# Step: 7 Box:       inf    0.0000    0.0000 
H        -0.742515894     0.000000000     0.000000000    -0.247882110    -0.286512192    -0.027557173
1
# Step: 8 Box:       inf    0.0000    0.0000 
H        -0.749661405     0.000000000     0.000000000    -0.332025856    -0.286512192    -0.027557173
1
# Step: 9 Box:       inf    0.0000    0.0000 
H        -0.758684786     0.000000000     0.000000000    -0.370664688    -0.286512192    -0.027557173
1
# Step: 10 Box:       inf    0.0000    0.0000 
H        -0.769070893     0.000000000     0.000000000    -0.454910526    -0.286512192    -0.027557173
1
# Step: 11 Box:       inf    0.0000    0.0000 
H        -0.781378690     0.000000000     0.000000000    -0.514277380    -0.286512192    -0.027557173
1
# Step: 12 Box:       inf    0.0000    0.0000 
H        -0.794539750     0.000000000     0.000000000    -0.526814740    -0.286512192    -0.027557173
1
# Step: 13 Box:       inf    0.0000    0.0000 
H        -0.807779197     0.000000000     0.000000000    -0.545231608    -0.286512192    -0.027557173
1
# Step: 14 Box:       inf    0.0000    0.0000 
H        -0.821490313     0.000000000     0.000000000    -0.559214605    -0.286512192    -0.027557173
1
# Step: 15 Box:       inf    0.0000    0.0000 
H        -0.835316076     0.000000000     0.000000000    -0.594371959    -0.286512192    -0.027557173
1
# Step: 16 Box:       inf    0.0000    0.0000 
H        -0.850149358     0.000000000     0.000000000    -0.616915678    -0.286512192    -0.027557173
1
# Step: 17 Box:       inf    0.0000    0.0000 
H        -0.866084502     0.000000000     0.000000000    -0.660145760    -0.286512192    -0.027557173
1
# Step: 18 Box:       inf    0.0000    0.0000 
H        -0.882448042     0.000000000     0.000000000    -0.617481419    -0.286512192    -0.027557173
1
# Step: 19 Box:       inf    0.0000    0.0000 
H        -0.898229341     0.000000000     0.000000000    -0.634969115    -0.286512192    -0.027557173
1
# Step: 20 Box:       inf    0.0000    0.0000 
H        -0.914057644     0.000000000     0.000000000    -0.647798516    -0.286512192    -0.027557173
1
# Step: 21 Box:       inf    0.0000    0.0000 
H        -0.930310791     0.000000000     0.000000000    -0.678007083    -0.286512192    -0.027557173
1
# Step: 22 Box:       inf    0.0000    0.0000 
H        -0.947425079     0.000000000     0.000000000    -0.694762404    -0.286512192    -0.027557173
1
# Step: 23 Box:       inf    0.0000    0.0000 
H        -0.964347774     0.000000000     0.000000000    -0.644903725    -0.286512192    -0.027557173
1
# Step: 24 Box:       inf    0.0000    0.0000 
H        -0.979773893     0.000000000     0.000000000    -0.613113945    -0.286512192    -0.027557173
1
# Step: 25 Box:       inf    0.0000    0.0000 
H        -0.995078198     0.000000000     0.000000000    -0.605650529    -0.286512192    -0.027557173
