1
# Step: 0 Box:       inf    0.0000    0.0000 
H        -0.761629120     0.000000000     0.000000000     0.198903066    -0.162906424    -0.044615182
1
# Step: 1 Box:       inf    0.0000    0.0000 
H        -0.757539124     0.000000000     0.000000000     0.151341812    -0.162906424    -0.044615182
1
# Step: 2 Box:       inf    0.0000    0.0000 
H        -0.754159700     0.000000000     0.000000000     0.141296177    -0.162906424    -0.044615182
1
# Step: 3 Box:       inf    0.0000    0.0000 
H        -0.750712178     0.000000000     0.000000000     0.138957217    -0.162906424    -0.044615182
1
# Step: 4 Box:       inf    0.0000    0.0000 
H        -0.747900544     0.000000000     0.000000000     0.097275391    -0.162906424    -0.044615182
1
# Step: 5 Box:       inf    0.0000    0.0000 
H        -0.745958179     0.000000000     0.000000000     0.008141639    -0.162906424    -0.044615182
1
# Step: 6 Box:       inf    0.0000    0.0000 
H        -0.746680147     0.000000000     0.000000000    -0.066187051    -0.162906424    -0.044615182
1
# Step: 7 Box:       inf    0.0000    0.0000 
H        -0.748881002     0.000000000     0.000000000    -0.113390422    -0.162906424    -0.044615182
1
# Step: 8 Box:       inf    0.0000    0.0000 
H        -0.752394849     0.000000000     0.000000000    -0.157652842    -0.162906424    -0.044615182
1
# Step: 9 Box:       inf    0.0000    0.0000 
H        -0.756516864     0.000000000     0.000000000    -0.170286583    -0.162906424    -0.044615182
1
# Step: 10 Box:       inf    0.0000    0.0000 
H        -0.762102007     0.000000000     0.000000000    -0.267053554    -0.162906424    -0.044615182
1
# Step: 11 Box:       inf    0.0000    0.0000 
H        -0.769203254     0.000000000     0.000000000    -0.296357286    -0.162906424    -0.044615182
1
# Step: 12 Box:       inf    0.0000    0.0000 
H        -0.776301524     0.000000000     0.000000000    -0.303882941    -0.162906424    -0.044615182
1
# Step: 13 Box:       inf    0.0000    0.0000 
H        -0.784514194     0.000000000     0.000000000    -0.344105806    -0.162906424    -0.044615182
1
# Step: 14 Box:       inf    0.0000    0.0000 
H        -0.793925358     0.000000000     0.000000000    -0.410520283    -0.162906424    -0.044615182
1
# Step: 15 Box:       inf    0.0000    0.0000 
H        -0.804043384     0.000000000     0.000000000    -0.421276366    -0.162906424    -0.044615182
