195
cubic box length of 12.4138
       C     1.62275    5.08249    0.51723
       O     0.87848    4.55400    1.26467
       O     2.32765    5.49473   -0.29277
       O     3.47807    2.07523    8.36572
       H     4.24365    2.21520    8.99739
       H     2.99691    1.26809    8.58929
       O    -0.64921    4.47648    5.86259
       H    -0.81057    5.43548    6.11106
       H    -0.58004    3.87520    6.66310
       O    11.05172    7.49137    6.32671
       H    12.07853    7.54199    6.19255
       H    10.80131    8.12454    7.10202
       O     8.75450   12.16167    9.76347
       H     7.98496   11.63644   10.15005
       H     8.39143   12.97196    9.29078
       O     8.05111    8.86050    7.03323
       H     8.13465    8.17502    7.72651
       H     8.56598    9.61951    7.50573
       O     1.02055   14.62285    5.16175
       H     0.82322   14.76634    4.23115
       H     0.20233   14.39480    5.64823
       O     4.04596    9.23249    9.13468
       H     4.41825    9.06478    8.19106
       H     3.83000   10.17896    9.07643
       O     5.50577   10.74829    1.79426
       H     6.07564   10.82941    1.00590
       H     6.11742   10.85418    2.55266
       O     1.78937    7.33784    3.67656
       H     0.87986    7.39055    3.29967
       H     1.74775    7.21469    4.64635
       O     7.82011   14.05611    8.17431
       H     7.17752   13.36625    7.83780
       H     7.16902   14.64314    8.70810
       O     8.90296    1.94813    5.45022
       H     9.21816    2.85444    5.15892
       H     8.34945    2.07886    6.23963
       O     1.39750    8.80805   12.39925
       H     2.32898    8.64306   12.73833
       H     1.53081    8.51089   11.51312
       O     5.33379    7.35638    3.34203
       H     5.90391    8.04657    3.69903
       H     5.02404    6.85910    4.13129
       O     9.97706    7.72303    3.98661
       H    10.17114    7.68803    4.97627
       H     9.06305    7.58935    3.79952
       O     1.17275    7.69461    6.20061
       H     1.35169    7.87833    7.16533
       H     1.06298    8.70258    5.91492
       O     9.01180    4.30843    1.52461
       H     9.67730    4.19594    2.25970
       H     9.46451    4.79877    0.86346
       O    13.37908   10.28772    5.45063
       H    14.14632   10.18307    4.77354
       H    12.65372   10.49356    4.82744
       O     5.61437    2.48341    9.70765
       H     5.39548    2.19716   10.67605
       H     5.58809    3.49230    9.86021
       O     2.97455    9.79768    3.95022
       H     2.99109   10.37404    3.09951
       H     2.70646    8.90205    3.67979
       O     4.60547    6.18682    5.84589
       H     5.40272    5.83962    6.39066
       H     3.97074    5.40217    5.89911
       O     6.81545    2.36304    1.71925
       H     7.30271    1.66893    2.26758
       H     7.57392    2.97987    1.67475
       O    10.96464   15.79362    9.12680
       H    11.65073   15.75891    9.82004
       H    11.15707   15.02652    8.56782
       O     8.48923    4.22368    9.89498
       H     7.82538    4.24199    9.14764
       H     9.25816    3.56961    9.67681
       O     3.03214    0.87177    4.10649
       H     2.21952    1.13767    4.66970
       H     3.47844    1.74394    3.92895
       O     2.95566   -0.53424    1.74745
       H     2.97123    0.14553    2.48740
       H     3.92457   -0.67037    1.59832
       O     8.43285    5.03539    5.45125
       H     8.22320    5.57117    4.67989
       H     9.24301    5.47736    5.80738
       O     6.22309   11.81357    7.73642
       H     5.44830   11.89888    8.32313
       H     5.76594   11.72225    6.79192
       O     6.60252    4.65758    7.18256
       H     6.24558    3.79270    6.96856
       H     7.31196    4.75230    6.44355
       O    11.53893    1.48619    6.86631
       H    10.58823    1.39777    6.61358
       H    11.95964    0.58020    7.06939
       O     4.73158    3.04249    3.48685
       H     5.43472    2.99030    2.80622
       H     4.05574    3.72241    3.16544
       O     7.33100    9.43371    4.06230
       H     7.72906    9.48229    4.99085
       H     7.99367    9.89205    3.48165
       O     4.01931    8.40844   13.21457
       H     4.41391    9.23914   13.64425
       H     4.19767    7.69704   13.84927
       O     4.76187   11.49173    5.13759
       H     4.03312   12.04445    4.75097
       H     4.51303   10.59649    4.97108
       O     4.95330    5.23623    9.46626
       H     5.57304    5.27218    8.68147
       H     5.09876    6.04528   10.06003
       O     5.17136    7.47920   10.73867
       H     5.07517    8.31599   10.18297
       H     4.77159    7.72597   11.64131
       O    11.62179    8.61532   10.09616
       H    11.76845    8.88971   11.00611
       H    12.50247    8.43743    9.68153
       O    10.62297    3.67795    3.55174
       H    11.30077    3.04262    3.11824
       H    11.02259    3.92016    4.45918
       O     4.92244    2.14453   12.20552
       H     3.99688    1.92806   12.54993
       H     5.56302    2.16620   12.96603
       O     7.83855    6.03588   11.55897
       H     8.24933    5.36456   10.95499
       H     7.35655    6.71141   10.94789
       O     9.32405    7.56459    9.35767
       H    10.23902    7.88345    9.65920
       H     9.38662    6.63424    9.44410
       O     1.73547    7.86403    9.05598
       H     2.58822    8.34110    9.16556
       H     1.90058    6.91429    8.95377
       O     2.40107    5.40032    8.74256
       H     2.32062    5.21421    7.78202
       H     3.37388    5.20520    8.98398
       O     7.80273    8.06575   13.23114
       H     7.39848    7.86781   14.11359
       H     7.81002    7.15260   12.83692
       O     1.21587    3.39416   10.36806
       H     1.54753    3.38122    9.44727
       H     1.69480    4.16096   10.72146
       O     7.74653    6.20800    3.03251
       H     8.06037    5.46533    2.41434
       H     6.77200    6.14207    2.96681
       O     5.42570    5.03978   13.29679
       H     5.01304    4.39359   12.73376
       H     6.12099    5.44774   12.70216
       O     3.24340    5.39168    2.35836
       H     4.07974    5.74607    1.98860
       H     2.86173    6.17155    2.90280
       O    11.74431    7.03056    2.26240
       H    11.08116    7.23527    2.97808
       H    11.82071    6.06065    2.37348
       O     2.82066   11.68310    8.95865
       H     2.34462   11.68670    9.87078
       H     1.97200   11.52122    8.46231
       O     8.68426   -1.33266    2.36071
       H     9.59037   -1.24017    2.73231
       H     8.07190   -0.82136    2.96385
       O     3.00015    4.00890    6.43397
       H     2.23089    3.68569    6.00458
       H     3.25858    3.32525    7.08776
       O     7.28481   10.75714   12.13499
       H     7.30374    9.82359   12.34016
       H     8.07995   10.96122   12.59707
       O    11.33720   10.36421    3.45479
       H    11.70580   10.58253    2.57592
       H    10.69562    9.56166    3.42907
       O    12.80717   11.62638    7.48405
       H    11.99483   11.13676    7.82199
       H    13.13855   10.96770    6.84956
       O     2.12690    2.02367    0.21724
       H     2.09034    1.03823    0.25109
       H     1.82655    2.16773   -0.74909
       O     0.25297    2.23787    2.52569
       H     0.83132    2.45336    1.74586
       H     0.10835    1.24614    2.38817
       O     4.85040    8.84844    6.69936
       H     5.79379    8.89261    6.43331
       H     4.50046    8.04872    6.14635
       O    10.18411   10.58871    8.19902
       H    10.37308    9.92864    8.94447
       H     9.62131   11.23224    8.80730
       O    10.40871    9.11136    0.61778
       H     9.55473    8.66851    0.74920
       H    11.02499    8.69606    1.25106
       O     5.62660    2.40237    6.25835
       H     5.07620    2.43319    5.40201
       H     5.03883    1.85198    6.81733
       O    10.77650   -0.98955   11.83022
       H    10.12543   -0.73394   11.10761
       H    10.47400   -1.85059   12.30975
       O     7.38282   12.73165    3.89405
       H     6.51003   12.48280    4.30883
       H     7.83266   13.43624    4.45273
       O    13.78209   -0.99358   -0.93593
       H    13.93536   -1.93445   -0.54827
       H    12.84812   -0.98169   -1.15019
       O     0.12095   12.06400    1.52909
       H     0.95637   11.77272    0.99245
       H    -0.67903   12.14324    0.90240
