1
# Step: 0 Box:       inf    0.0000    0.0000 
H        -0.479937847     0.000000000     0.000000000     0.022127981    -0.024994672    -0.051810956
1
# Step: 1 Box:       inf    0.0000    0.0000 
H        -0.479758376     0.000000000     0.000000000    -0.017346674    -0.024994672    -0.051810956
1
# Step: 2 Box:       inf    0.0000    0.0000 
H        -0.480871286     0.000000000     0.000000000    -0.089412079    -0.024994672    -0.051810956
1
# Step: 3 Box:       inf    0.0000    0.0000 
H        -0.483464631     0.000000000     0.000000000    -0.099466454    -0.024994672    -0.051810956
1
# Step: 4 Box:       inf    0.0000    0.0000 
H        -0.485856234     0.000000000     0.000000000    -0.100000348    -0.024994672    -0.051810956
1
# Step: 5 Box:       inf    0.0000    0.0000 
H        -0.489281823     0.000000000     0.000000000    -0.178694973    -0.024994672    -0.051810956
1
# Step: 6 Box:       inf    0.0000    0.0000 
H        -0.493683897     0.000000000     0.000000000    -0.179271421    -0.024994672    -0.051810956
1
# Step: 7 Box:       inf    0.0000    0.0000 
H        -0.499423534     0.000000000     0.000000000    -0.284235886    -0.024994672    -0.051810956
1
# Step: 8 Box:       inf    0.0000    0.0000 
H        -0.507215975     0.000000000     0.000000000    -0.330204199    -0.024994672    -0.051810956
1
# Step: 9 Box:       inf    0.0000    0.0000 
H        -0.516526596     0.000000000     0.000000000    -0.397798730    -0.024994672    -0.051810956
1
# Step: 10 Box:       inf    0.0000    0.0000 
H        -0.526830708     0.000000000     0.000000000    -0.417529081    -0.024994672    -0.051810956
1
# Step: 11 Box:       inf    0.0000    0.0000 
H        -0.537075885     0.000000000     0.000000000    -0.385803154    -0.024994672    -0.051810956
1
# Step: 12 Box:       inf    0.0000    0.0000 
H        -0.546757836     0.000000000     0.000000000    -0.391034526    -0.024994672    -0.051810956
1
# Step: 13 Box:       inf    0.0000    0.0000 
H        -0.557293471     0.000000000     0.000000000    -0.450021117    -0.024994672    -0.051810956
1
# Step: 14 Box:       inf    0.0000    0.0000 
H        -0.569566601     0.000000000     0.000000000    -0.532783700    -0.024994672    -0.051810956
1
# Step: 15 Box:       inf    0.0000    0.0000 
H        -0.584085966     0.000000000     0.000000000    -0.600711275    -0.024994672    -0.051810956
1
# Step: 16 Box:       inf    0.0000    0.0000 
H        -0.599348603     0.000000000     0.000000000    -0.600572269    -0.024994672    -0.051810956
1
# Step: 17 Box:       inf    0.0000    0.0000 
H        -0.614697578     0.000000000     0.000000000    -0.613053319    -0.024994672    -0.051810956
