1
# Step: 0 Box:       inf    0.0000    0.0000 
H        -0.614697578     0.000000000     0.000000000    -0.613053319    -0.024994672    -0.051810956
1
# Step: 1 Box:       inf    0.0000    0.0000 
H        -0.629758101     0.000000000     0.000000000    -0.606429018    -0.024994672    -0.051810956
1
# Step: 2 Box:       inf    0.0000    0.0000 
H        -0.644985234     0.000000000     0.000000000    -0.616184340    -0.024994672    -0.051810956
1
# Step: 3 Box:       inf    0.0000    0.0000 
H        -0.660920981     0.000000000     0.000000000    -0.658456800    -0.024994672    -0.051810956
1
# Step: 4 Box:       inf    0.0000    0.0000 
H        -0.677780660     0.000000000     0.000000000    -0.687586746    -0.024994672    -0.051810956
1
# Step: 5 Box:       inf    0.0000    0.0000 
H        -0.695005186     0.000000000     0.000000000    -0.730194434    -0.024994672    -0.051810956
1
# Step: 6 Box:       inf    0.0000    0.0000 
H        -0.713942971     0.000000000     0.000000000    -0.785390283    -0.024994672    -0.051810956
1
# Step: 7 Box:       inf    0.0000    0.0000 
H        -0.733714823     0.000000000     0.000000000    -0.810246815    -0.024994672    -0.051810956
1
# Step: 8 Box:       inf    0.0000    0.0000 
H        -0.754771083     0.000000000     0.000000000    -0.858128910    -0.024994672    -0.051810956
1
# Step: 9 Box:       inf    0.0000    0.0000 
H        -0.776823263     0.000000000     0.000000000    -0.914949732    -0.024994672    -0.051810956
1
# Step: 10 Box:       inf    0.0000    0.0000 
H        -0.799378778     0.000000000     0.000000000    -0.885660466    -0.024994672    -0.051810956
1
# Step: 11 Box:       inf    0.0000    0.0000 
H        -0.821805644     0.000000000     0.000000000    -0.884434299    -0.024994672    -0.051810956
1
# Step: 12 Box:       inf    0.0000    0.0000 
H        -0.844321572     0.000000000     0.000000000    -0.921531551    -0.024994672    -0.051810956
1
# Step: 13 Box:       inf    0.0000    0.0000 
H        -0.868215768     0.000000000     0.000000000    -0.961183110    -0.024994672    -0.051810956
1
# Step: 14 Box:       inf    0.0000    0.0000 
H        -0.893055135     0.000000000     0.000000000    -1.018799420    -0.024994672    -0.051810956
1
# Step: 15 Box:       inf    0.0000    0.0000 
H        -0.918638194     0.000000000     0.000000000    -1.032284870    -0.024994672    -0.051810956
1
# Step: 16 Box:       inf    0.0000    0.0000 
H        -0.944544730     0.000000000     0.000000000    -1.040607672    -0.024994672    -0.051810956
1
# Step: 17 Box:       inf    0.0000    0.0000 
H        -0.970851932     0.000000000     0.000000000    -1.061424171    -0.024994672    -0.051810956
1
# Step: 18 Box:       inf    0.0000    0.0000 
H        -0.997515736     0.000000000     0.000000000    -1.085679883    -0.024994672    -0.051810956
