1
# Step: 0 Box:       inf    0.0000    0.0000 
H        -0.603823673     0.000000000     0.000000000    -0.632635444     0.024994672     0.051810956
1
# Step: 1 Box:       inf    0.0000    0.0000 
H        -0.619993916     0.000000000     0.000000000    -0.650481348     0.024994672     0.051810956
1
# Step: 2 Box:       inf    0.0000    0.0000 
H        -0.637178484     0.000000000     0.000000000    -0.688241189     0.024994672     0.051810956
1
# Step: 3 Box:       inf    0.0000    0.0000 
H        -0.654627465     0.000000000     0.000000000    -0.703656555     0.024994672     0.051810956
1
# Step: 4 Box:       inf    0.0000    0.0000 
H        -0.672242647     0.000000000     0.000000000    -0.720666250     0.024994672     0.051810956
1
# Step: 5 Box:       inf    0.0000    0.0000 
H        -0.690058973     0.000000000     0.000000000    -0.730438701     0.024994672     0.051810956
1
# Step: 6 Box:       inf    0.0000    0.0000 
H        -0.709826347     0.000000000     0.000000000    -0.830032935     0.024994672     0.051810956
1
# Step: 7 Box:       inf    0.0000    0.0000 
H        -0.730009477     0.000000000     0.000000000    -0.788050309     0.024994672     0.051810956
1
# Step: 8 Box:       inf    0.0000    0.0000 
H        -0.749366090     0.000000000     0.000000000    -0.795267140     0.024994672     0.051810956
1
# Step: 9 Box:       inf    0.0000    0.0000 
H        -0.768864934     0.000000000     0.000000000    -0.765269570     0.024994672     0.051810956
1
# Step: 10 Box:       inf    0.0000    0.0000 
H        -0.788597917     0.000000000     0.000000000    -0.826888945     0.024994672     0.051810956
1
# Step: 11 Box:       inf    0.0000    0.0000 
H        -0.809853801     0.000000000     0.000000000    -0.867043566     0.024994672     0.051810956
1
# Step: 12 Box:       inf    0.0000    0.0000 
H        -0.831754730     0.000000000     0.000000000    -0.885420842     0.024994672     0.051810956
1
# Step: 13 Box:       inf    0.0000    0.0000 
H        -0.853183454     0.000000000     0.000000000    -0.866489733     0.024994672     0.051810956
1
# Step: 14 Box:       inf    0.0000    0.0000 
H        -0.875137248     0.000000000     0.000000000    -0.911250066     0.024994672     0.051810956
1
# Step: 15 Box:       inf    0.0000    0.0000 
H        -0.897696821     0.000000000     0.000000000    -0.896275672     0.024994672     0.051810956
1
# Step: 16 Box:       inf    0.0000    0.0000 
H        -0.920045329     0.000000000     0.000000000    -0.874738187     0.024994672     0.051810956
1
# Step: 17 Box:       inf    0.0000    0.0000 
H        -0.941944916     0.000000000     0.000000000    -0.881525392     0.024994672     0.051810956
1
# Step: 18 Box:       inf    0.0000    0.0000 
H        -0.963649367     0.000000000     0.000000000    -0.858282630     0.024994672     0.051810956
1
# Step: 19 Box:       inf    0.0000    0.0000 
H        -0.985686154     0.000000000     0.000000000    -0.869309488     0.024994672     0.051810956
1
# Step: 20 Box:       inf    0.0000    0.0000 
H        -1.008145649     0.000000000     0.000000000    -0.914828765     0.024994672     0.051810956
