1
# Step: 0 Box:       inf    0.0000    0.0000 
H        -0.076579917     0.000000000     0.000000000     0.139958323    -0.377645252    -0.058969164
1
# Step: 1 Box:       inf    0.0000    0.0000 
H        -0.072574872     0.000000000     0.000000000     0.145848163    -0.377645252    -0.058969164
1
# Step: 2 Box:       inf    0.0000    0.0000 
H        -0.069481987     0.000000000     0.000000000     0.135283782    -0.377645252    -0.058969164
1
# Step: 3 Box:       inf    0.0000    0.0000 
H        -0.066535858     0.000000000     0.000000000     0.122298698    -0.377645252    -0.058969164
1
# Step: 4 Box:       inf    0.0000    0.0000 
H        -0.062892352     0.000000000     0.000000000     0.154303103    -0.377645252    -0.058969164
1
# Step: 5 Box:       inf    0.0000    0.0000 
H        -0.059220607     0.000000000     0.000000000     0.127087622    -0.377645252    -0.058969164
1
# Step: 6 Box:       inf    0.0000    0.0000 
H        -0.055895405     0.000000000     0.000000000     0.121695218    -0.377645252    -0.058969164
1
# Step: 7 Box:       inf    0.0000    0.0000 
H        -0.053339428     0.000000000     0.000000000     0.114777402    -0.377645252    -0.058969164
1
# Step: 8 Box:       inf    0.0000    0.0000 
H        -0.050013026     0.000000000     0.000000000     0.125987015    -0.377645252    -0.058969164
1
# Step: 9 Box:       inf    0.0000    0.0000 
H        -0.046709253     0.000000000     0.000000000     0.132537172    -0.377645252    -0.058969164
1
# Step: 10 Box:       inf    0.0000    0.0000 
H        -0.043532643     0.000000000     0.000000000     0.124914541    -0.377645252    -0.058969164
1
# Step: 11 Box:       inf    0.0000    0.0000 
H        -0.040555076     0.000000000     0.000000000     0.149667341    -0.377645252    -0.058969164
1
# Step: 12 Box:       inf    0.0000    0.0000 
H        -0.036523462     0.000000000     0.000000000     0.192004217    -0.377645252    -0.058969164
1
# Step: 13 Box:       inf    0.0000    0.0000 
H        -0.031585263     0.000000000     0.000000000     0.188156670    -0.377645252    -0.058969164
1
# Step: 14 Box:       inf    0.0000    0.0000 
H        -0.027120585     0.000000000     0.000000000     0.166924195    -0.377645252    -0.058969164
1
# Step: 15 Box:       inf    0.0000    0.0000 
H        -0.022677641     0.000000000     0.000000000     0.188265242    -0.377645252    -0.058969164
1
# Step: 16 Box:       inf    0.0000    0.0000 
H        -0.018530183     0.000000000     0.000000000     0.144515678    -0.377645252    -0.058969164
1
# Step: 17 Box:       inf    0.0000    0.0000 
H        -0.014901831     0.000000000     0.000000000     0.153508308    -0.377645252    -0.058969164
1
# Step: 18 Box:       inf    0.0000    0.0000 
H        -0.011335120     0.000000000     0.000000000     0.138508651    -0.377645252    -0.058969164
1
# Step: 19 Box:       inf    0.0000    0.0000 
H        -0.007660116     0.000000000     0.000000000     0.124438998    -0.377645252    -0.058969164
1
# Step: 20 Box:       inf    0.0000    0.0000 
H        -0.004637727     0.000000000     0.000000000     0.119508818    -0.377645252    -0.058969164
1
# Step: 21 Box:       inf    0.0000    0.0000 
H        -0.001148582     0.000000000     0.000000000     0.157696421    -0.377645252    -0.058969164
1
# Step: 22 Box:       inf    0.0000    0.0000 
H         0.002527603     0.000000000     0.000000000     0.154291421    -0.377645252    -0.058969164
1
# Step: 23 Box:       inf    0.0000    0.0000 
H         0.005911561     0.000000000     0.000000000     0.107799529    -0.377645252    -0.058969164
1
# Step: 24 Box:       inf    0.0000    0.0000 
H         0.008996715     0.000000000     0.000000000     0.152709189    -0.377645252    -0.058969164
1
# Step: 25 Box:       inf    0.0000    0.0000 
H         0.012041294     0.000000000     0.000000000     0.103653151    -0.377645252    -0.058969164
1
# Step: 26 Box:       inf    0.0000    0.0000 
H         0.014257788     0.000000000     0.000000000     0.089689824    -0.377645252    -0.058969164
1
# Step: 27 Box:       inf    0.0000    0.0000 
H         0.017638121     0.000000000     0.000000000     0.142173165    -0.377645252    -0.058969164
1
# Step: 28 Box:       inf    0.0000    0.0000 
H         0.021154962     0.000000000     0.000000000     0.156734142    -0.377645252    -0.058969164
1
# Step: 29 Box:       inf    0.0000    0.0000 
H         0.024963253     0.000000000     0.000000000     0.148638755    -0.377645252    -0.058969164
1
# Step: 30 Box:       inf    0.0000    0.0000 
H         0.029388858     0.000000000     0.000000000     0.203202513    -0.377645252    -0.058969164
1
# Step: 31 Box:       inf    0.0000    0.0000 
H         0.034156825     0.000000000     0.000000000     0.174406486    -0.377645252    -0.058969164
1
# Step: 32 Box:       inf    0.0000    0.0000 
H         0.038933858     0.000000000     0.000000000     0.212232558    -0.377645252    -0.058969164
1
# Step: 33 Box:       inf    0.0000    0.0000 
H         0.043866567     0.000000000     0.000000000     0.202260450    -0.377645252    -0.058969164
1
# Step: 34 Box:       inf    0.0000    0.0000 
H         0.048849695     0.000000000     0.000000000     0.197655496    -0.377645252    -0.058969164
1
# Step: 35 Box:       inf    0.0000    0.0000 
H         0.053053017     0.000000000     0.000000000     0.177682876    -0.377645252    -0.058969164
1
# Step: 36 Box:       inf    0.0000    0.0000 
H         0.057544726     0.000000000     0.000000000     0.189486036    -0.377645252    -0.058969164
1
# Step: 37 Box:       inf    0.0000    0.0000 
H         0.062435020     0.000000000     0.000000000     0.192855950    -0.377645252    -0.058969164
1
# Step: 38 Box:       inf    0.0000    0.0000 
H         0.067650187     0.000000000     0.000000000     0.213950927    -0.377645252    -0.058969164
1
# Step: 39 Box:       inf    0.0000    0.0000 
H         0.073025435     0.000000000     0.000000000     0.214197596    -0.377645252    -0.058969164
1
# Step: 40 Box:       inf    0.0000    0.0000 
H         0.079136889     0.000000000     0.000000000     0.243448177    -0.377645252    -0.058969164
1
# Step: 41 Box:       inf    0.0000    0.0000 
H         0.085605814     0.000000000     0.000000000     0.252097902    -0.377645252    -0.058969164
1
# Step: 42 Box:       inf    0.0000    0.0000 
H         0.091934128     0.000000000     0.000000000     0.256973232    -0.377645252    -0.058969164
1
# Step: 43 Box:       inf    0.0000    0.0000 
H         0.098739835     0.000000000     0.000000000     0.282587119    -0.377645252    -0.058969164
1
# Step: 44 Box:       inf    0.0000    0.0000 
H         0.106782956     0.000000000     0.000000000     0.349164412    -0.377645252    -0.058969164
1
# Step: 45 Box:       inf    0.0000    0.0000 
H         0.115664614     0.000000000     0.000000000     0.367933777    -0.377645252    -0.058969164
1
# Step: 46 Box:       inf    0.0000    0.0000 
H         0.125402513     0.000000000     0.000000000     0.398519362    -0.377645252    -0.058969164
1
# Step: 47 Box:       inf    0.0000    0.0000 
H         0.135503527     0.000000000     0.000000000     0.394980023    -0.377645252    -0.058969164
1
# Step: 48 Box:       inf    0.0000    0.0000 
H         0.146078354     0.000000000     0.000000000     0.419881660    -0.377645252    -0.058969164
1
# Step: 49 Box:       inf    0.0000    0.0000 
H         0.156842849     0.000000000     0.000000000     0.447209901    -0.377645252    -0.058969164
1
# Step: 50 Box:       inf    0.0000    0.0000 
H         0.167921933     0.000000000     0.000000000     0.429086692    -0.377645252    -0.058969164
1
# Step: 51 Box:       inf    0.0000    0.0000 
H         0.178873065     0.000000000     0.000000000     0.458682968    -0.377645252    -0.058969164
1
# Step: 52 Box:       inf    0.0000    0.0000 
H         0.190947594     0.000000000     0.000000000     0.509266953    -0.377645252    -0.058969164
1
# Step: 53 Box:       inf    0.0000    0.0000 
H         0.204229766     0.000000000     0.000000000     0.560411321    -0.377645252    -0.058969164
1
# Step: 54 Box:       inf    0.0000    0.0000 
H         0.219219154     0.000000000     0.000000000     0.632820222    -0.377645252    -0.058969164
1
# Step: 55 Box:       inf    0.0000    0.0000 
H         0.234881276     0.000000000     0.000000000     0.636600369    -0.377645252    -0.058969164
1
# Step: 56 Box:       inf    0.0000    0.0000 
H         0.250980913     0.000000000     0.000000000     0.679431477    -0.377645252    -0.058969164
1
# Step: 57 Box:       inf    0.0000    0.0000 
H         0.268602582     0.000000000     0.000000000     0.722481109    -0.377645252    -0.058969164
1
# Step: 58 Box:       inf    0.0000    0.0000 
H         0.286353076     0.000000000     0.000000000     0.747080349    -0.377645252    -0.058969164
1
# Step: 59 Box:       inf    0.0000    0.0000 
H         0.305490808     0.000000000     0.000000000     0.772777436    -0.377645252    -0.058969164
1
# Step: 60 Box:       inf    0.0000    0.0000 
H         0.324541441     0.000000000     0.000000000     0.778921955    -0.377645252    -0.058969164
1
# Step: 61 Box:       inf    0.0000    0.0000 
H         0.345467183     0.000000000     0.000000000     0.877488918    -0.377645252    -0.058969164
1
# Step: 62 Box:       inf    0.0000    0.0000 
H         0.367645964     0.000000000     0.000000000     0.902619280    -0.377645252    -0.058969164
1
# Step: 63 Box:       inf    0.0000    0.0000 
H         0.390301568     0.000000000     0.000000000     0.894577670    -0.377645252    -0.058969164
1
# Step: 64 Box:       inf    0.0000    0.0000 
H         0.412506357     0.000000000     0.000000000     0.908906065    -0.377645252    -0.058969164
1
# Step: 65 Box:       inf    0.0000    0.0000 
H         0.435605062     0.000000000     0.000000000     0.945633708    -0.377645252    -0.058969164
1
# Step: 66 Box:       inf    0.0000    0.0000 
H         0.459383265     0.000000000     0.000000000     0.985823196    -0.377645252    -0.058969164
1
# Step: 67 Box:       inf    0.0000    0.0000 
H         0.483547033     0.000000000     0.000000000     0.941536526    -0.377645252    -0.058969164
1
# Step: 68 Box:       inf    0.0000    0.0000 
H         0.508144914     0.000000000     0.000000000     1.010653243    -0.377645252    -0.058969164
1
# Step: 69 Box:       inf    0.0000    0.0000 
H         0.533597221     0.000000000     0.000000000     1.042203379    -0.377645252    -0.058969164
1
# Step: 70 Box:       inf    0.0000    0.0000 
H         0.560333560     0.000000000     0.000000000     1.063145120    -0.377645252    -0.058969164
1
# Step: 71 Box:       inf    0.0000    0.0000 
H         0.587365100     0.000000000     0.000000000     1.137151036    -0.377645252    -0.058969164
1
# Step: 72 Box:       inf    0.0000    0.0000 
H         0.616258091     0.000000000     0.000000000     1.161380780    -0.377645252    -0.058969164
1
# Step: 73 Box:       inf    0.0000    0.0000 
H         0.645017184     0.000000000     0.000000000     1.178342229    -0.377645252    -0.058969164
1
# Step: 74 Box:       inf    0.0000    0.0000 
H         0.674058236     0.000000000     0.000000000     1.138517159    -0.377645252    -0.058969164
1
# Step: 75 Box:       inf    0.0000    0.0000 
H         0.702283606     0.000000000     0.000000000     1.101788885    -0.377645252    -0.058969164
1
# Step: 76 Box:       inf    0.0000    0.0000 
H         0.729935472     0.000000000     0.000000000     1.123336963    -0.377645252    -0.058969164
1
# Step: 77 Box:       inf    0.0000    0.0000 
H         0.758488868     0.000000000     0.000000000     1.150967719    -0.377645252    -0.058969164
1
# Step: 78 Box:       inf    0.0000    0.0000 
H         0.788375559     0.000000000     0.000000000     1.216868736    -0.377645252    -0.058969164
1
# Step: 79 Box:       inf    0.0000    0.0000 
H         0.818300769     0.000000000     0.000000000     1.194799773    -0.377645252    -0.058969164
1
# Step: 80 Box:       inf    0.0000    0.0000 
H         0.848141827     0.000000000     0.000000000     1.167754650    -0.377645252    -0.058969164
1
# Step: 81 Box:       inf    0.0000    0.0000 
H         0.877667456     0.000000000     0.000000000     1.192704282    -0.377645252    -0.058969164
1
# Step: 82 Box:       inf    0.0000    0.0000 
H         0.907479585     0.000000000     0.000000000     1.191543881    -0.377645252    -0.058969164
1
# Step: 83 Box:       inf    0.0000    0.0000 
H         0.937180750     0.000000000     0.000000000     1.198694639    -0.377645252    -0.058969164
1
# Step: 84 Box:       inf    0.0000    0.0000 
H         0.967265902     0.000000000     0.000000000     1.189716681    -0.377645252    -0.058969164
1
# Step: 85 Box:       inf    0.0000    0.0000 
H         0.997116227     0.000000000     0.000000000     1.171688975    -0.377645252    -0.058969164
1
# Step: 86 Box:       inf    0.0000    0.0000 
H         1.026217729     0.000000000     0.000000000     1.130810946    -0.377645252    -0.058969164
