1
# Step: 0 Box:       inf    0.0000    0.0000 
H        -0.805585250     0.000000000     0.000000000    -0.585503583     0.426562970    -0.087356774
1
# Step: 1 Box:       inf    0.0000    0.0000 
H        -0.820764575     0.000000000     0.000000000    -0.589515724     0.426562970    -0.087356774
1
# Step: 2 Box:       inf    0.0000    0.0000 
H        -0.836217942     0.000000000     0.000000000    -0.636422766     0.426562970    -0.087356774
1
# Step: 3 Box:       inf    0.0000    0.0000 
H        -0.851881391     0.000000000     0.000000000    -0.628915313     0.426562970    -0.087356774
1
# Step: 4 Box:       inf    0.0000    0.0000 
H        -0.867173229     0.000000000     0.000000000    -0.613184366     0.426562970    -0.087356774
1
# Step: 5 Box:       inf    0.0000    0.0000 
H        -0.882262751     0.000000000     0.000000000    -0.612197668     0.426562970    -0.087356774
1
# Step: 6 Box:       inf    0.0000    0.0000 
H        -0.897823429     0.000000000     0.000000000    -0.593192392     0.426562970    -0.087356774
1
# Step: 7 Box:       inf    0.0000    0.0000 
H        -0.912324645     0.000000000     0.000000000    -0.570891584     0.426562970    -0.087356774
1
# Step: 8 Box:       inf    0.0000    0.0000 
H        -0.927216928     0.000000000     0.000000000    -0.615929626     0.426562970    -0.087356774
1
# Step: 9 Box:       inf    0.0000    0.0000 
H        -0.943258066     0.000000000     0.000000000    -0.628658606     0.426562970    -0.087356774
1
# Step: 10 Box:       inf    0.0000    0.0000 
H        -0.959331447     0.000000000     0.000000000    -0.644873409     0.426562970    -0.087356774
1
# Step: 11 Box:       inf    0.0000    0.0000 
H        -0.975826817     0.000000000     0.000000000    -0.678654298     0.426562970    -0.087356774
1
# Step: 12 Box:       inf    0.0000    0.0000 
H        -0.992118327     0.000000000     0.000000000    -0.635395489     0.426562970    -0.087356774
