1
# Step: 0 Box:       inf    0.0000    0.0000 
H        -0.804519897     0.000000000     0.000000000    -0.478746442    -0.426562970     0.087356774
1
# Step: 1 Box:       inf    0.0000    0.0000 
H        -0.816992963     0.000000000     0.000000000    -0.496612326    -0.426562970     0.087356774
1
# Step: 2 Box:       inf    0.0000    0.0000 
H        -0.829009350     0.000000000     0.000000000    -0.478598124    -0.426562970     0.087356774
1
# Step: 3 Box:       inf    0.0000    0.0000 
H        -0.841689039     0.000000000     0.000000000    -0.524803058    -0.426562970     0.087356774
1
# Step: 4 Box:       inf    0.0000    0.0000 
H        -0.855494888     0.000000000     0.000000000    -0.556341858    -0.426562970     0.087356774
1
# Step: 5 Box:       inf    0.0000    0.0000 
H        -0.869062185     0.000000000     0.000000000    -0.542789739    -0.426562970     0.087356774
1
# Step: 6 Box:       inf    0.0000    0.0000 
H        -0.882879652     0.000000000     0.000000000    -0.576592444    -0.426562970     0.087356774
1
# Step: 7 Box:       inf    0.0000    0.0000 
H        -0.897146858     0.000000000     0.000000000    -0.583396720    -0.426562970     0.087356774
1
# Step: 8 Box:       inf    0.0000    0.0000 
H        -0.911506367     0.000000000     0.000000000    -0.551582389    -0.426562970     0.087356774
1
# Step: 9 Box:       inf    0.0000    0.0000 
H        -0.925448958     0.000000000     0.000000000    -0.575988935    -0.426562970     0.087356774
1
# Step: 10 Box:       inf    0.0000    0.0000 
H        -0.939444480     0.000000000     0.000000000    -0.556565128    -0.426562970     0.087356774
1
# Step: 11 Box:       inf    0.0000    0.0000 
H        -0.952912884     0.000000000     0.000000000    -0.518051105    -0.426562970     0.087356774
1
# Step: 12 Box:       inf    0.0000    0.0000 
H        -0.966628226     0.000000000     0.000000000    -0.541085606    -0.426562970     0.087356774
1
# Step: 13 Box:       inf    0.0000    0.0000 
H        -0.980414874     0.000000000     0.000000000    -0.593164040    -0.426562970     0.087356774
1
# Step: 14 Box:       inf    0.0000    0.0000 
H        -0.995019890     0.000000000     0.000000000    -0.549602663    -0.426562970     0.087356774
