1
# Step: 0 Box:       inf    0.0000    0.0000 
H        -0.781729539     0.000000000     0.000000000     0.437698981     0.426562970    -0.087356774
1
# Step: 1 Box:       inf    0.0000    0.0000 
H        -0.770763934     0.000000000     0.000000000     0.441019135     0.426562970    -0.087356774
1
# Step: 2 Box:       inf    0.0000    0.0000 
H        -0.759547184     0.000000000     0.000000000     0.435812132     0.426562970    -0.087356774
1
# Step: 3 Box:       inf    0.0000    0.0000 
H        -0.749119511     0.000000000     0.000000000     0.404438171     0.426562970    -0.087356774
1
# Step: 4 Box:       inf    0.0000    0.0000 
H        -0.739116415     0.000000000     0.000000000     0.399576674     0.426562970    -0.087356774
1
# Step: 5 Box:       inf    0.0000    0.0000 
H        -0.729830915     0.000000000     0.000000000     0.381437460     0.426562970    -0.087356774
1
# Step: 6 Box:       inf    0.0000    0.0000 
H        -0.720837629     0.000000000     0.000000000     0.344924631     0.426562970    -0.087356774
1
# Step: 7 Box:       inf    0.0000    0.0000 
H        -0.712969671     0.000000000     0.000000000     0.298149998     0.426562970    -0.087356774
1
# Step: 8 Box:       inf    0.0000    0.0000 
H        -0.705620160     0.000000000     0.000000000     0.279941922     0.426562970    -0.087356774
1
# Step: 9 Box:       inf    0.0000    0.0000 
H        -0.699021453     0.000000000     0.000000000     0.263484266     0.426562970    -0.087356774
1
# Step: 10 Box:       inf    0.0000    0.0000 
H        -0.692438312     0.000000000     0.000000000     0.255203486     0.426562970    -0.087356774
1
# Step: 11 Box:       inf    0.0000    0.0000 
H        -0.685802635     0.000000000     0.000000000     0.248294084     0.426562970    -0.087356774
1
# Step: 12 Box:       inf    0.0000    0.0000 
H        -0.680095248     0.000000000     0.000000000     0.197149454     0.426562970    -0.087356774
1
# Step: 13 Box:       inf    0.0000    0.0000 
H        -0.674765994     0.000000000     0.000000000     0.216287356     0.426562970    -0.087356774
1
# Step: 14 Box:       inf    0.0000    0.0000 
H        -0.670167837     0.000000000     0.000000000     0.161117647     0.426562970    -0.087356774
1
# Step: 15 Box:       inf    0.0000    0.0000 
H        -0.666225717     0.000000000     0.000000000     0.148097622     0.426562970    -0.087356774
1
# Step: 16 Box:       inf    0.0000    0.0000 
H        -0.663140497     0.000000000     0.000000000     0.110788116     0.426562970    -0.087356774
1
# Step: 17 Box:       inf    0.0000    0.0000 
H        -0.660811448     0.000000000     0.000000000     0.081663073     0.426562970    -0.087356774
1
# Step: 18 Box:       inf    0.0000    0.0000 
H        -0.659744054     0.000000000     0.000000000     0.014002697     0.426562970    -0.087356774
1
# Step: 19 Box:       inf    0.0000    0.0000 
H        -0.660271531     0.000000000     0.000000000    -0.063531300     0.426562970    -0.087356774
1
# Step: 20 Box:       inf    0.0000    0.0000 
H        -0.661908249     0.000000000     0.000000000    -0.092375618     0.426562970    -0.087356774
1
# Step: 21 Box:       inf    0.0000    0.0000 
H        -0.664243690     0.000000000     0.000000000    -0.114549476     0.426562970    -0.087356774
1
# Step: 22 Box:       inf    0.0000    0.0000 
H        -0.667683483     0.000000000     0.000000000    -0.143724785     0.426562970    -0.087356774
1
# Step: 23 Box:       inf    0.0000    0.0000 
H        -0.671830735     0.000000000     0.000000000    -0.154434335     0.426562970    -0.087356774
1
# Step: 24 Box:       inf    0.0000    0.0000 
H        -0.676413861     0.000000000     0.000000000    -0.202481207     0.426562970    -0.087356774
1
# Step: 25 Box:       inf    0.0000    0.0000 
H        -0.682290327     0.000000000     0.000000000    -0.259681692     0.426562970    -0.087356774
1
# Step: 26 Box:       inf    0.0000    0.0000 
H        -0.688809236     0.000000000     0.000000000    -0.270430416     0.426562970    -0.087356774
1
# Step: 27 Box:       inf    0.0000    0.0000 
H        -0.696148803     0.000000000     0.000000000    -0.298583651     0.426562970    -0.087356774
1
# Step: 28 Box:       inf    0.0000    0.0000 
H        -0.703342888     0.000000000     0.000000000    -0.282923125     0.426562970    -0.087356774
1
# Step: 29 Box:       inf    0.0000    0.0000 
H        -0.710772684     0.000000000     0.000000000    -0.323324370     0.426562970    -0.087356774
1
# Step: 30 Box:       inf    0.0000    0.0000 
H        -0.719647897     0.000000000     0.000000000    -0.389820488     0.426562970    -0.087356774
1
# Step: 31 Box:       inf    0.0000    0.0000 
H        -0.730117005     0.000000000     0.000000000    -0.433563246     0.426562970    -0.087356774
1
# Step: 32 Box:       inf    0.0000    0.0000 
H        -0.741623205     0.000000000     0.000000000    -0.471146575     0.426562970    -0.087356774
1
# Step: 33 Box:       inf    0.0000    0.0000 
H        -0.753346149     0.000000000     0.000000000    -0.465197958     0.426562970    -0.087356774
1
# Step: 34 Box:       inf    0.0000    0.0000 
H        -0.765128196     0.000000000     0.000000000    -0.501540730     0.426562970    -0.087356774
1
# Step: 35 Box:       inf    0.0000    0.0000 
H        -0.777553390     0.000000000     0.000000000    -0.498389401     0.426562970    -0.087356774
1
# Step: 36 Box:       inf    0.0000    0.0000 
H        -0.791031101     0.000000000     0.000000000    -0.583086950     0.426562970    -0.087356774
1
# Step: 37 Box:       inf    0.0000    0.0000 
H        -0.805585250     0.000000000     0.000000000    -0.585503583     0.426562970    -0.087356774
