1
# Step: 0 Box:       inf    0.0000    0.0000 
H        -0.250364412     0.000000000     0.000000000     0.583026627     0.206718069    -0.114738122
1
# Step: 1 Box:       inf    0.0000    0.0000 
H        -0.236106633     0.000000000     0.000000000     0.559542386     0.206718069    -0.114738122
1
# Step: 2 Box:       inf    0.0000    0.0000 
H        -0.222453977     0.000000000     0.000000000     0.532520842     0.206718069    -0.114738122
1
# Step: 3 Box:       inf    0.0000    0.0000 
H        -0.208753718     0.000000000     0.000000000     0.562941713     0.206718069    -0.114738122
1
# Step: 4 Box:       inf    0.0000    0.0000 
H        -0.195090440     0.000000000     0.000000000     0.569296263     0.206718069    -0.114738122
1
# Step: 5 Box:       inf    0.0000    0.0000 
H        -0.181753847     0.000000000     0.000000000     0.495122319     0.206718069    -0.114738122
1
# Step: 6 Box:       inf    0.0000    0.0000 
H        -0.169130990     0.000000000     0.000000000     0.521206332     0.206718069    -0.114738122
1
# Step: 7 Box:       inf    0.0000    0.0000 
H        -0.155577705     0.000000000     0.000000000     0.552449361     0.206718069    -0.114738122
1
# Step: 8 Box:       inf    0.0000    0.0000 
H        -0.142286824     0.000000000     0.000000000     0.520291210     0.206718069    -0.114738122
1
# Step: 9 Box:       inf    0.0000    0.0000 
H        -0.129335252     0.000000000     0.000000000     0.511282802     0.206718069    -0.114738122
1
# Step: 10 Box:       inf    0.0000    0.0000 
H        -0.117002080     0.000000000     0.000000000     0.491852636     0.206718069    -0.114738122
1
# Step: 11 Box:       inf    0.0000    0.0000 
H        -0.104787870     0.000000000     0.000000000     0.464296203     0.206718069    -0.114738122
1
# Step: 12 Box:       inf    0.0000    0.0000 
H        -0.093921584     0.000000000     0.000000000     0.437958796     0.206718069    -0.114738122
1
# Step: 13 Box:       inf    0.0000    0.0000 
H        -0.082938423     0.000000000     0.000000000     0.433936312     0.206718069    -0.114738122
1
# Step: 14 Box:       inf    0.0000    0.0000 
H        -0.072398909     0.000000000     0.000000000     0.416902476     0.206718069    -0.114738122
1
# Step: 15 Box:       inf    0.0000    0.0000 
H        -0.061811792     0.000000000     0.000000000     0.428658192     0.206718069    -0.114738122
1
# Step: 16 Box:       inf    0.0000    0.0000 
H        -0.051211907     0.000000000     0.000000000     0.401886528     0.206718069    -0.114738122
1
# Step: 17 Box:       inf    0.0000    0.0000 
H        -0.041018648     0.000000000     0.000000000     0.397887822     0.206718069    -0.114738122
1
# Step: 18 Box:       inf    0.0000    0.0000 
H        -0.031631479     0.000000000     0.000000000     0.372007612     0.206718069    -0.114738122
1
# Step: 19 Box:       inf    0.0000    0.0000 
H        -0.022251668     0.000000000     0.000000000     0.353834152     0.206718069    -0.114738122
1
# Step: 20 Box:       inf    0.0000    0.0000 
H        -0.013594045     0.000000000     0.000000000     0.355629268     0.206718069    -0.114738122
1
# Step: 21 Box:       inf    0.0000    0.0000 
H        -0.005218484     0.000000000     0.000000000     0.336080924     0.206718069    -0.114738122
1
# Step: 22 Box:       inf    0.0000    0.0000 
H         0.003057594     0.000000000     0.000000000     0.328875667     0.206718069    -0.114738122
1
# Step: 23 Box:       inf    0.0000    0.0000 
H         0.009826301     0.000000000     0.000000000     0.247331838     0.206718069    -0.114738122
1
# Step: 24 Box:       inf    0.0000    0.0000 
H         0.015671595     0.000000000     0.000000000     0.212069109     0.206718069    -0.114738122
1
# Step: 25 Box:       inf    0.0000    0.0000 
H         0.021329440     0.000000000     0.000000000     0.227297076     0.206718069    -0.114738122
1
# Step: 26 Box:       inf    0.0000    0.0000 
H         0.026756987     0.000000000     0.000000000     0.227167583     0.206718069    -0.114738122
1
# Step: 27 Box:       inf    0.0000    0.0000 
H         0.032410876     0.000000000     0.000000000     0.233392562     0.206718069    -0.114738122
1
# Step: 28 Box:       inf    0.0000    0.0000 
H         0.038314671     0.000000000     0.000000000     0.248701460     0.206718069    -0.114738122
1
# Step: 29 Box:       inf    0.0000    0.0000 
H         0.044698130     0.000000000     0.000000000     0.250707782     0.206718069    -0.114738122
1
# Step: 30 Box:       inf    0.0000    0.0000 
H         0.051088122     0.000000000     0.000000000     0.280327980     0.206718069    -0.114738122
1
# Step: 31 Box:       inf    0.0000    0.0000 
H         0.057886488     0.000000000     0.000000000     0.263914685     0.206718069    -0.114738122
1
# Step: 32 Box:       inf    0.0000    0.0000 
H         0.065419726     0.000000000     0.000000000     0.313881007     0.206718069    -0.114738122
1
# Step: 33 Box:       inf    0.0000    0.0000 
H         0.073707094     0.000000000     0.000000000     0.326340645     0.206718069    -0.114738122
1
# Step: 34 Box:       inf    0.0000    0.0000 
H         0.081293648     0.000000000     0.000000000     0.305425512     0.206718069    -0.114738122
1
# Step: 35 Box:       inf    0.0000    0.0000 
H         0.088619649     0.000000000     0.000000000     0.271737981     0.206718069    -0.114738122
1
# Step: 36 Box:       inf    0.0000    0.0000 
H         0.095716654     0.000000000     0.000000000     0.306181496     0.206718069    -0.114738122
1
# Step: 37 Box:       inf    0.0000    0.0000 
H         0.103242903     0.000000000     0.000000000     0.299817387     0.206718069    -0.114738122
1
# Step: 38 Box:       inf    0.0000    0.0000 
H         0.111078012     0.000000000     0.000000000     0.318231433     0.206718069    -0.114738122
1
# Step: 39 Box:       inf    0.0000    0.0000 
H         0.117993732     0.000000000     0.000000000     0.282124399     0.206718069    -0.114738122
1
# Step: 40 Box:       inf    0.0000    0.0000 
H         0.125176942     0.000000000     0.000000000     0.310921156     0.206718069    -0.114738122
1
# Step: 41 Box:       inf    0.0000    0.0000 
H         0.133180350     0.000000000     0.000000000     0.347475607     0.206718069    -0.114738122
1
# Step: 42 Box:       inf    0.0000    0.0000 
H         0.142440498     0.000000000     0.000000000     0.400579824     0.206718069    -0.114738122
1
# Step: 43 Box:       inf    0.0000    0.0000 
H         0.152416229     0.000000000     0.000000000     0.399065056     0.206718069    -0.114738122
1
# Step: 44 Box:       inf    0.0000    0.0000 
H         0.162582143     0.000000000     0.000000000     0.386042557     0.206718069    -0.114738122
1
# Step: 45 Box:       inf    0.0000    0.0000 
H         0.172310706     0.000000000     0.000000000     0.397745483     0.206718069    -0.114738122
1
# Step: 46 Box:       inf    0.0000    0.0000 
H         0.181800053     0.000000000     0.000000000     0.393250628     0.206718069    -0.114738122
1
# Step: 47 Box:       inf    0.0000    0.0000 
H         0.191800195     0.000000000     0.000000000     0.392897013     0.206718069    -0.114738122
1
# Step: 48 Box:       inf    0.0000    0.0000 
H         0.201261096     0.000000000     0.000000000     0.365421426     0.206718069    -0.114738122
1
# Step: 49 Box:       inf    0.0000    0.0000 
H         0.210683069     0.000000000     0.000000000     0.381240835     0.206718069    -0.114738122
1
# Step: 50 Box:       inf    0.0000    0.0000 
H         0.220393146     0.000000000     0.000000000     0.379090754     0.206718069    -0.114738122
1
# Step: 51 Box:       inf    0.0000    0.0000 
H         0.230384672     0.000000000     0.000000000     0.408886444     0.206718069    -0.114738122
1
# Step: 52 Box:       inf    0.0000    0.0000 
H         0.241283249     0.000000000     0.000000000     0.459478252     0.206718069    -0.114738122
1
# Step: 53 Box:       inf    0.0000    0.0000 
H         0.252037798     0.000000000     0.000000000     0.430394384     0.206718069    -0.114738122
1
# Step: 54 Box:       inf    0.0000    0.0000 
H         0.263745665     0.000000000     0.000000000     0.500222808     0.206718069    -0.114738122
1
# Step: 55 Box:       inf    0.0000    0.0000 
H         0.276295144     0.000000000     0.000000000     0.507215012     0.206718069    -0.114738122
1
# Step: 56 Box:       inf    0.0000    0.0000 
H         0.289647091     0.000000000     0.000000000     0.561404613     0.206718069    -0.114738122
1
# Step: 57 Box:       inf    0.0000    0.0000 
H         0.304144639     0.000000000     0.000000000     0.585539573     0.206718069    -0.114738122
1
# Step: 58 Box:       inf    0.0000    0.0000 
H         0.319501293     0.000000000     0.000000000     0.606951818     0.206718069    -0.114738122
1
# Step: 59 Box:       inf    0.0000    0.0000 
H         0.334972736     0.000000000     0.000000000     0.608612325     0.206718069    -0.114738122
1
# Step: 60 Box:       inf    0.0000    0.0000 
H         0.350367424     0.000000000     0.000000000     0.627594348     0.206718069    -0.114738122
1
# Step: 61 Box:       inf    0.0000    0.0000 
H         0.366371085     0.000000000     0.000000000     0.665712060     0.206718069    -0.114738122
1
# Step: 62 Box:       inf    0.0000    0.0000 
H         0.383038927     0.000000000     0.000000000     0.651195794     0.206718069    -0.114738122
1
# Step: 63 Box:       inf    0.0000    0.0000 
H         0.400088251     0.000000000     0.000000000     0.678874260     0.206718069    -0.114738122
1
# Step: 64 Box:       inf    0.0000    0.0000 
H         0.416953586     0.000000000     0.000000000     0.659310155     0.206718069    -0.114738122
1
# Step: 65 Box:       inf    0.0000    0.0000 
H         0.433507892     0.000000000     0.000000000     0.703984115     0.206718069    -0.114738122
1
# Step: 66 Box:       inf    0.0000    0.0000 
H         0.451210350     0.000000000     0.000000000     0.726391441     0.206718069    -0.114738122
1
# Step: 67 Box:       inf    0.0000    0.0000 
H         0.470324835     0.000000000     0.000000000     0.801578144     0.206718069    -0.114738122
1
# Step: 68 Box:       inf    0.0000    0.0000 
H         0.491049739     0.000000000     0.000000000     0.830607533     0.206718069    -0.114738122
1
# Step: 69 Box:       inf    0.0000    0.0000 
H         0.512286614     0.000000000     0.000000000     0.864886939     0.206718069    -0.114738122
1
# Step: 70 Box:       inf    0.0000    0.0000 
H         0.534814445     0.000000000     0.000000000     0.921871735     0.206718069    -0.114738122
1
# Step: 71 Box:       inf    0.0000    0.0000 
H         0.558692329     0.000000000     0.000000000     0.948991283     0.206718069    -0.114738122
1
# Step: 72 Box:       inf    0.0000    0.0000 
H         0.583007080     0.000000000     0.000000000     0.994483131     0.206718069    -0.114738122
1
# Step: 73 Box:       inf    0.0000    0.0000 
H         0.608269162     0.000000000     0.000000000     1.038418354     0.206718069    -0.114738122
1
# Step: 74 Box:       inf    0.0000    0.0000 
H         0.635250275     0.000000000     0.000000000     1.117206062     0.206718069    -0.114738122
1
# Step: 75 Box:       inf    0.0000    0.0000 
H         0.663392324     0.000000000     0.000000000     1.129098508     0.206718069    -0.114738122
1
# Step: 76 Box:       inf    0.0000    0.0000 
H         0.691878920     0.000000000     0.000000000     1.177356049     0.206718069    -0.114738122
1
# Step: 77 Box:       inf    0.0000    0.0000 
H         0.721777101     0.000000000     0.000000000     1.201225865     0.206718069    -0.114738122
1
# Step: 78 Box:       inf    0.0000    0.0000 
H         0.751926288     0.000000000     0.000000000     1.208113026     0.206718069    -0.114738122
1
# Step: 79 Box:       inf    0.0000    0.0000 
H         0.782438796     0.000000000     0.000000000     1.231391505     0.206718069    -0.114738122
1
# Step: 80 Box:       inf    0.0000    0.0000 
H         0.813974697     0.000000000     0.000000000     1.307913313     0.206718069    -0.114738122
1
# Step: 81 Box:       inf    0.0000    0.0000 
H         0.846531342     0.000000000     0.000000000     1.315988947     0.206718069    -0.114738122
1
# Step: 82 Box:       inf    0.0000    0.0000 
H         0.880804778     0.000000000     0.000000000     1.394305127     0.206718069    -0.114738122
1
# Step: 83 Box:       inf    0.0000    0.0000 
H         0.915539974     0.000000000     0.000000000     1.405736999     0.206718069    -0.114738122
1
# Step: 84 Box:       inf    0.0000    0.0000 
H         0.950490022     0.000000000     0.000000000     1.365231914     0.206718069    -0.114738122
1
# Step: 85 Box:       inf    0.0000    0.0000 
H         0.985452515     0.000000000     0.000000000     1.412088885     0.206718069    -0.114738122
1
# Step: 86 Box:       inf    0.0000    0.0000 
H         1.020413978     0.000000000     0.000000000     1.365584928     0.206718069    -0.114738122
