1
# Step: 0 Box:       inf    0.0000    0.0000 
H        -0.806089866     0.000000000     0.000000000    -0.453941421    -0.353636887     0.137323088
1
# Step: 1 Box:       inf    0.0000    0.0000 
H        -0.817683936     0.000000000     0.000000000    -0.473864668    -0.353636887     0.137323088
1
# Step: 2 Box:       inf    0.0000    0.0000 
H        -0.830329008     0.000000000     0.000000000    -0.529367717    -0.353636887     0.137323088
1
# Step: 3 Box:       inf    0.0000    0.0000 
H        -0.842893679     0.000000000     0.000000000    -0.482138676    -0.353636887     0.137323088
1
# Step: 4 Box:       inf    0.0000    0.0000 
H        -0.855338722     0.000000000     0.000000000    -0.512972332    -0.353636887     0.137323088
1
# Step: 5 Box:       inf    0.0000    0.0000 
H        -0.869149641     0.000000000     0.000000000    -0.580658352    -0.353636887     0.137323088
1
# Step: 6 Box:       inf    0.0000    0.0000 
H        -0.883723037     0.000000000     0.000000000    -0.569349665    -0.353636887     0.137323088
1
# Step: 7 Box:       inf    0.0000    0.0000 
H        -0.898960367     0.000000000     0.000000000    -0.649319439    -0.353636887     0.137323088
1
# Step: 8 Box:       inf    0.0000    0.0000 
H        -0.915126850     0.000000000     0.000000000    -0.677224298    -0.353636887     0.137323088
1
# Step: 9 Box:       inf    0.0000    0.0000 
H        -0.932003378     0.000000000     0.000000000    -0.676883874    -0.353636887     0.137323088
1
# Step: 10 Box:       inf    0.0000    0.0000 
H        -0.948547203     0.000000000     0.000000000    -0.657012898    -0.353636887     0.137323088
1
# Step: 11 Box:       inf    0.0000    0.0000 
H        -0.965192515     0.000000000     0.000000000    -0.671958006    -0.353636887     0.137323088
1
# Step: 12 Box:       inf    0.0000    0.0000 
H        -0.981544810     0.000000000     0.000000000    -0.650776284    -0.353636887     0.137323088
1
# Step: 13 Box:       inf    0.0000    0.0000 
H        -0.997962658     0.000000000     0.000000000    -0.648731619    -0.353636887     0.137323088
