1
# Step: 0 Box:       inf    0.0000    0.0000 
H        -0.804010626     0.000000000     0.000000000    -0.461447072     0.353636887    -0.137323088
1
# Step: 1 Box:       inf    0.0000    0.0000 
H        -0.816282441     0.000000000     0.000000000    -0.511451042     0.353636887    -0.137323088
1
# Step: 2 Box:       inf    0.0000    0.0000 
H        -0.828768681     0.000000000     0.000000000    -0.483274925     0.353636887    -0.137323088
1
# Step: 3 Box:       inf    0.0000    0.0000 
H        -0.841609238     0.000000000     0.000000000    -0.517104776     0.353636887    -0.137323088
1
# Step: 4 Box:       inf    0.0000    0.0000 
H        -0.855096784     0.000000000     0.000000000    -0.553921598     0.353636887    -0.137323088
1
# Step: 5 Box:       inf    0.0000    0.0000 
H        -0.869266630     0.000000000     0.000000000    -0.597012259     0.353636887    -0.137323088
1
# Step: 6 Box:       inf    0.0000    0.0000 
H        -0.884087676     0.000000000     0.000000000    -0.617822605     0.353636887    -0.137323088
1
# Step: 7 Box:       inf    0.0000    0.0000 
H        -0.899776122     0.000000000     0.000000000    -0.655266566     0.353636887    -0.137323088
1
# Step: 8 Box:       inf    0.0000    0.0000 
H        -0.916557183     0.000000000     0.000000000    -0.678893433     0.353636887    -0.137323088
1
# Step: 9 Box:       inf    0.0000    0.0000 
H        -0.933981109     0.000000000     0.000000000    -0.713741139     0.353636887    -0.137323088
1
# Step: 10 Box:       inf    0.0000    0.0000 
H        -0.951802323     0.000000000     0.000000000    -0.690330822     0.353636887    -0.137323088
1
# Step: 11 Box:       inf    0.0000    0.0000 
H        -0.969476278     0.000000000     0.000000000    -0.725026276     0.353636887    -0.137323088
1
# Step: 12 Box:       inf    0.0000    0.0000 
H        -0.987543837     0.000000000     0.000000000    -0.735039540     0.353636887    -0.137323088
1
# Step: 13 Box:       inf    0.0000    0.0000 
H        -1.006497530     0.000000000     0.000000000    -0.766767436     0.353636887    -0.137323088
